* NGSpice model -- 457A module for dd60
.subckt 457a in1 in2 in3 in4 in5 in6 in7 in8 out1 out2
R1       in1 out1 2700
R2       in2 out1 6800
R3       in3 out1 1200
R4       in4 out1 1200
R5       in5 out2 2700
R6       in6 out2 6800
R7       in7 out2 1200
R8       in8 out2 1200
.ends 457a
